/*--------------------------------*- C++ -*----------------------------------*\
| =========                 |                                                 |
| \\      /  F ield         | OpenFOAM: The Open Source CFD Toolbox           |
|  \\    /   O peration     | Version:  2.4.0                                 |
|   \\  /    A nd           | Web:      www.OpenFOAM.org                      |
|    \\/     M anipulation  |                                                 |
\*---------------------------------------------------------------------------*/
FoamFile
{
    version     2.0;
    format      ascii;
    class       dictionary;
    location    "system";
    object      fvSchemes;
}
// * * * * * * * * * * * * * * * * * * * * * * * * * * * * * * * * * * * * * //

ddtSchemes
{
    default         Euler;
}

gradSchemes
{
    default         Gauss linear;
    grad(p)         Gauss linear;
}

divSchemes
{
    default         none;
    div(phi,U)      Gauss linear;
    div(phi,T)      Gauss vanLeer;
    div(phi,T0)      Gauss vanLeer;
    div(phi,T1)      Gauss vanLeer;
    div(phi,T2)      Gauss vanLeer;
    div(phi,T3)      Gauss vanLeer;
    div(phi,T4)      Gauss vanLeer;
    div(phi,T5)      Gauss vanLeer;
    div(phi,T6)      Gauss vanLeer;
    div(phi,T7)      Gauss vanLeer;
    div(phi,T8)      Gauss vanLeer;
}

laplacianSchemes
{
    default         Gauss linear orthogonal;
}

interpolationSchemes
{
    default         linear;
}

snGradSchemes
{
    default         orthogonal;
}

fluxRequired
{
    default         no;
    p               ;
    Phi;
}


// ************************************************************************* //
