/*--------------------------------*- C++ -*----------------------------------*\
| =========                 |                                                 |
| \\      /  F ield         | OpenFOAM: The Open Source CFD Toolbox           |
|  \\    /   O peration     | Version:  2.4.0                                 |
|   \\  /    A nd           | Web:      www.OpenFOAM.org                      |
|    \\/     M anipulation  |                                                 |
\*---------------------------------------------------------------------------*/
FoamFile
{
    version     2.0;
    format      ascii;
    class       dictionary;
    location    "system";
    object      fvSolution;
}
// * * * * * * * * * * * * * * * * * * * * * * * * * * * * * * * * * * * * * //

solvers
{
    p
    {
        solver          PCG;
        preconditioner  DIC;
        tolerance       1e-06;
        relTol          0;
    }

    U
    {
        solver          smoothSolver;
        smoother        symGaussSeidel;
        tolerance       1e-05;
        relTol          0;
    }
    
    Phi
    {
    solver GAMG;
    smoother GaussSeidel;
    cacheAgglomeration no;
    agglomerator faceAreaPair;
    nCellsInCoarsestLevel 10;
    mergeLevels 1;
    nPreSweeps 0;
    nPostSweeps 1;
    tolerance 1e-08;
    relTol 0.01;
    }
}

PISO
{
    nCorrectors     2;
    nNonOrthogonalCorrectors 0;
    pRefCell        0;
    pRefValue       0;
}

potentialFlow
{
    nNonOrthogonalCorrectors 10;
    PhiRefCell 0; 
    PhiRefValue 0;
}
// ************************************************************************* //
